LAMMPS (7 Jun 2013)
units			metal
atom_style		atomic
timestep 		0.001
dimension 	        2
boundary		p p p
read_data       SiC.lammpstrj
  orthogonal box = (0 0 -0.5) to (213.6 123.322 0.5)
  6400 atoms
mass			1 28.0855
mass			2 12.0107

velocity	all create 50.0 12345

pair_style tersoff
pair_coeff * * SiC.tersoff Si C

thermo_style custom step temp etotal  xlo xhi ylo yhi zlo zhi vol press
#========================================RELAX================================================
fix			1 all npt temp 50.0 50.0 0.001 x 0.0 0.0 1000.0 y 0.0 0.0 1000.0 couple xy
dump				1 all xyz 100000 relax50.xyz
thermo				100000
run				100000
Step Temp TotEng Xlo Xhi Ylo Yhi Zlo Zhi Volume Press
0           50   -36332.309            0        213.6            0      123.322         -0.5          0.5    26341.579    265417.13
Loop time of 256.248 on 24 procs for 100000 steps with 6400 atoms

Pair  time (%) = 182.443 (71.1976)
Neigh time (%) = 0.00118405 (0.00046207)
Comm  time (%) = 24.177 (9.43498)
Outpt time (%) = 0.591038 (0.230651)
Other time (%) = 49.0365 (19.1363)

undump				1
unfix				1
#=============================================================================================

#==================================HEATING at 2x10^11 K/s=====================================
#*********************************************************************************************
# DELTA_T  = 8000K-50K = 7950K
# DURATION = 6950K : 2x10^11 K/s = 3975x10^-11 s
# STEPS    = 3975x10^-11 s : 0,001 ps = 3975x10^-11 : 10^-15 = 3975x10^4 MDs
# thermo output : each 5K
# DELTA_T = 5K
# DURATION = 5K : 2x10^11 K/s = 25x10^-12 s
# STEPS    = 25x10^-12 s : 0,001 ps = 25x10^-12 : 10^-15 = 25000 MDs
# dump output : each 50K
# DELTA_T = 50K
# DURATION = 50K : 2x10^11 K/s = 25x10^-11 s
# STEPS    = 25x10^-11 s : 0,001 ps = 25x10^-11 : 10^-15 = 250000 MDs
#*********************************************************************************************
fix			1 all npt temp 50.0 8000.0 0.001 x 0.0 0.0 1000.0 y 0.0 0.0 1000.0 couple xy
dump				1 all xyz 500000 heating.xyz
thermo				25000
run				39750000
Step Temp TotEng Xlo Xhi Ylo Yhi Zlo Zhi Volume Press
100000    50.236096   -36355.771   -1.3189119    214.91891  -0.76147403    124.08347         -0.5          0.5      26996.2    840.66819
Averages over the last 796 of 1591 rows, steps 19975000 to 39850000:
Temp TotEng Xlo Xhi Ylo Yhi Zlo Zhi Volume Press
6015.04 -23652.7 -158.39 371.99 -91.4464 214.768 -0.5 0.5 433660 1141.26
Loop time of 103190 on 24 procs for 39750000 steps with 6400 atoms

Pair  time (%) = 69221 (67.0815)
Neigh time (%) = 223.34 (0.216437)
Comm  time (%) = 13350.3 (12.9376)
Outpt time (%) = 44.2674 (0.0428992)
Other time (%) = 20350.6 (19.7216)

undump				1
unfix				1
#=============================================================================================

#========================================RELAX================================================
fix			1 all npt temp 8000.0 8000.0 0.001 x 0.0 0.0 1000.0 y 0.0 0.0 1000.0 couple xy
dump				1 all xyz 100000 relax8000.xyz
thermo				100000
run				100000
Step Temp TotEng Xlo Xhi Ylo Yhi Zlo Zhi Volume Press
39850000    7949.9738    36.172497   -1912.3865    2125.9865   -1104.1167    1227.4387         -0.5          0.5    9415690.7     600.4394
Loop time of 57.2058 on 24 procs for 100000 steps with 6400 atoms

Pair  time (%) = 4.22714 (7.38937)
Neigh time (%) = 1.58667 (2.77362)
Comm  time (%) = 13.4197 (23.4586)
Outpt time (%) = 0.681565 (1.19143)
Other time (%) = 37.2907 (65.187)

undump				1
unfix				1
#=============================================================================================
