LAMMPS (12 Apr 2013)

units				metal
atom_style			atomic
dimension			2
boundary			p p p

lattice custom 1.42 a1 3  0  0  a2 0 1.73203 0 a3 0.0 0.0 0.5 basis 0 0.5 0  basis 0.166666 0 0 basis 0.5 0 0 basis 0.666666 0.5 0
Lattice spacing in x,y,z = 4.26 2.45948 0.71
region  box block 0 10 0 10 -0.5 0.5
create_box  1 box
Created orthogonal box = (0 0 -0.355) to (42.6 24.5948 0.355)
create_atoms 1 box
Created 400 atoms

mass				1 12.0107
velocity			all create 50 12345
pair_style 			lcbop
pair_coeff 			* * C.lcbop C

#---------------relax------------------------
fix			1 all npt temp 50.0 50.0 0.001 x 0.0 0.0 1000.0 y 0.0 0.0 1000.0 couple xy
dump				1 all xyz 50000 relax.xyz
thermo				10000
run				100000
Step Temp E_pair E_mol TotEng Press Volume
0           50   -2939.9919            0   -2938.2728   -298.15791    1047.7396
Averages over the last 6 of 11 rows, steps 50000 to 100000:
Temp E_pair E_mol TotEng Press Volume
51.2066 -2938.28 0 -2936.52 1328.52 1048.12
Loop time of 1011.58 on 1 procs for 100000 steps with 400 atoms

Pair  time (%) = 995.98 (98.4582)
Neigh time (%) = 0 (0)
Comm  time (%) = 2.18654 (0.216151)
Outpt time (%) = 0.0167479 (0.00165562)
Other time (%) = 13.3929 (1.32396)

undump				1
unfix				1
